Circuit: * C:\Users\mati_\Desktop\adc\ltspice\Draft1.asc

Direct Newton iteration for .op point succeeded.

Date: Mon Jul 02 19:44:33 2018
Total elapsed time: 0.064 seconds.

tnom = 27
temp = 27
method = modified trap
totiter = 2085
traniter = 2082
tranpoints = 1042
accept = 1042
rejected = 0
matrix size = 5
fillins = 1
solver = Normal
Matrix Compiler1: 294 bytes object code size  0.1/0.0/[0.0]
Matrix Compiler2: 371 bytes object code size  0.1/0.2/[0.1]

