Circuit: * C:\Users\mati_\Desktop\adc\ltspice\filtro2.asc

Per .tran options, skipping operating point for transient analysis.

Date: Sun Jun 24 00:33:19 2018
Total elapsed time: 0.118 seconds.

tnom = 27
temp = 27
method = modified trap
totiter = 2100
traniter = 2100
tranpoints = 1048
accept = 1047
rejected = 1
matrix size = 54
fillins = 106
solver = Normal
Matrix Compiler1: 8.53 KB object code size  2.0/0.9/[0.6]
Matrix Compiler2: 6.47 KB object code size  0.6/1.0/[0.5]

