Circuit: * C:\Users\mati_\Desktop\adc\ltspice\filtro3.asc

Per .tran options, skipping operating point for transient analysis.

Date: Sun Jun 24 12:35:06 2018
Total elapsed time: 0.142 seconds.

tnom = 27
temp = 27
method = modified trap
totiter = 2098
traniter = 2098
tranpoints = 1047
accept = 1047
rejected = 0
matrix size = 54
fillins = 106
solver = Normal
Matrix Compiler1: 8.53 KB object code size  1.9/0.9/[0.9]
Matrix Compiler2: off  [0.6]/1.0/0.8

