Circuit: * C:\Users\mati_\Desktop\adc\ltspice\tl1.asc

Early termination of direct N-R iteration.
Direct Newton iteration failed to find .op point.  (Use ".option noopiter" to skip.)
Starting Gmin stepping
Increasing initial diagonal Gmin to 100
Gmin = 100
vernier = 0.5
vernier = 0.25
Gmin = 34.2672
vernier = 0.125
vernier = 0.0625
Gmin = 0
Gmin stepping aborted per request.

Starting source stepping with srcstepmethod=0
Source Step = 3.0303%
Source Step = 33.3333%
Source Step = 63.6364%
Source Step = 93.9394%
Source stepping succeeded in finding the operating point.


Date: Sun Jun 24 16:50:20 2018
Total elapsed time: 692.008 seconds.

tnom = 27
temp = 27
method = modified trap
totiter = 801236
traniter = 800618
tranpoints = 400024
accept = 400024
rejected = 0
matrix size = 580
fillins = 7743
solver = Normal
Thread vector: 161.3/111.0[4] 40.4/20.5[4] 79.0/46.5[4] 23.3/17.5[4]  2592/500
Matrix Compiler1: 1.82 MB object code size  518.1/322.8/[259.7]
Matrix Compiler2: 180.47 KB object code size  119.6/100.6/[53.9]

